
Circuit: 

Doing analysis at TEMP = 27.000000 and TNOM = 27.000000


No. of Data Rows : 1
********************************************
Simulated Results
********************************************
t2_2_TAB
v(1) = 0.000000e+00
v(2) = 0.000000e+00
v(3) = 0.000000e+00
v(5) = 0.000000e+00
v(6) = 8.672740e+00
v(7) = 0.000000e+00
v(8) = 0.000000e+00
@r1[i] = 0.000000e+00
@r2[i] = 0.000000e+00
@r3[i] = 0.000000e+00
@r4[i] = 0.000000e+00
@r5[i] = 2.825161e-03
@r6[i] = 0.000000e+00
@r7[i] = 0.000000e+00
t2_2_END
ngspice-31 done
