
Circuit: 

Doing analysis at TEMP = 27.000000 and TNOM = 27.000000


No. of Data Rows : 1
********************************************
Simulated Results
********************************************
t2_1_TAB
v(1) = 5.169294e+00
v(2) = 4.893019e+00
v(3) = 4.311489e+00
v(5) = 4.932163e+00
v(6) = 5.799405e+00
v(7) = -1.89912e+00
v(8) = -2.87334e+00
@r1[i] = -2.70057e-04
@r2[i] = -2.82506e-04
@r3[i] = -1.24485e-05
@r4[i] = 1.206173e-03
@r5[i] = 2.825057e-04
@r6[i] = 9.361162e-04
@r7[i] = -9.36116e-04
t2_1_END
ngspice-31 done
